<?xml version="1.0" encoding="UTF-8"?>

<!-- generated on 2026-02-10 14:27:53 by Eclipse SUMO netedit Version 1.18.0
-->

<routes xmlns:xsi="http://www.w3.org/2001/XMLSchema-instance" xsi:noNamespaceSchemaLocation="http://sumo.dlr.de/xsd/routes_file.xsd">
    <!-- VTypes -->
    <vType id="bus" length="12.00" minGap="3.00" maxSpeed="11.11" color="blue" accel="1.2" decel="4.0" sigma="0.5"/>
    <vType id="car" length="5.00" minGap="2.50" maxSpeed="13.89" color="yellow" accel="2.6" decel="4.5" sigma="0.5"/>
    <vType id="truck" length="10.00" minGap="3.50" maxSpeed="8.33" color="red" accel="1.0" decel="3.5" sigma="0.5"/>
    <!-- Routes -->
    <route id="highway_direct" edges="S1_J1 J1_J2 J2_J3 J3_D1"/>
    <route id="highway_via_city" edges="S1_J1 J1_J4 J4_J5 J5_J6 J6_J3 J3_D1"/>
    <route id="highway_via_local" edges="S1_J1 J1_J4 J4_J7 J7_J8 J8_J9 J9_J6 J6_J3 J3_D1"/>
    <route id="nr1_to_d1" edges="NR1_J1 J1_J2 J2_J3 J3_D1"/>
    <route id="nr1_to_d2" edges="NR1_J1 J1_J4 J4_J7 J7_J8 J8_J9 J9_D2"/>
    <route id="nr1_to_sr1" edges="NR1_J1 J1_J4 J4_J5 J5_J8 J8_SR1"/>
    <route id="nr2_to_d1" edges="NR2_J2 J2_J3 J3_D1"/>
    <route id="nr2_to_d2" edges="NR2_J2 J2_J5 J5_J8 J8_J9 J9_D2"/>
    <route id="nr2_to_sr1" edges="NR2_J2 J2_J5 J5_J8 J8_SR1"/>
    <route id="nr3_to_d1" edges="NR3_J3 J3_D1"/>
    <route id="nr3_to_d2" edges="NR3_J3 J3_J6 J6_J9 J9_D2"/>
    <route id="nr3_to_sr2" edges="NR3_J3 J3_J6 J6_J9 J9_SR2"/>
    <route id="s1_to_sr1" edges="S1_J1 J1_J2 J2_J5 J5_J8 J8_SR1"/>
    <route id="s1_to_sr2" edges="S1_J1 J1_J2 J2_J3 J3_J6 J6_J9 J9_SR2"/>
    <route id="s2_to_d1_mid" edges="S2_J7 J7_J8 J8_J5 J5_J2 J2_J3 J3_D1"/>
    <route id="s2_to_d1_up" edges="S2_J7 J7_J4 J4_J1 J1_J2 J2_J3 J3_D1"/>
    <route id="s2_to_d2" edges="S2_J7 J7_J8 J8_J9 J9_D2"/>
    <route id="west_to_d2_mid" edges="S1_J1 J1_J2 J2_J5 J5_J8 J8_J9 J9_D2"/>
    <route id="west_to_d2_south" edges="S1_J1 J1_J4 J4_J7 J7_J8 J8_J9 J9_D2"/>
    <!-- Vehicles, persons and containers (sorted by depart) -->
    <vehicle id="v0" type="car" depart="0.00" route="highway_direct"/>
    <vehicle id="v1" type="car" depart="2.00" route="nr1_to_d1"/>
    <vehicle id="v2" type="car" depart="4.00" route="s2_to_d2"/>
    <vehicle id="v3" type="bus" depart="5.00" route="highway_direct"/>
    <vehicle id="v4" type="car" depart="7.00" route="nr2_to_d1"/>
    <vehicle id="v5" type="car" depart="9.00" route="nr3_to_d2"/>
    <vehicle id="v6" type="truck" depart="10.00" route="highway_via_city"/>
    <vehicle id="v7" type="car" depart="12.00" route="west_to_d2_mid"/>
    <vehicle id="v8" type="car" depart="14.00" route="s2_to_d1_up"/>
    <vehicle id="v9" type="car" depart="16.00" route="nr1_to_sr1"/>
    <vehicle id="v10" type="car" depart="18.00" route="highway_direct"/>
    <vehicle id="v11" type="bus" depart="20.00" route="s2_to_d2"/>
    <vehicle id="v12" type="car" depart="22.00" route="nr2_to_sr1"/>
    <vehicle id="v13" type="car" depart="24.00" route="s1_to_sr2"/>
    <vehicle id="v14" type="car" depart="26.00" route="nr3_to_d1"/>
    <vehicle id="v15" type="truck" depart="28.00" route="west_to_d2_south"/>
    <vehicle id="v16" type="car" depart="30.00" route="highway_direct"/>
    <vehicle id="v17" type="car" depart="32.00" route="s2_to_d1_mid"/>
    <vehicle id="v18" type="car" depart="34.00" route="nr3_to_sr2"/>
    <vehicle id="v19" type="bus" depart="36.00" route="highway_via_local"/>
    <vehicle id="v20" type="car" depart="38.00" route="s1_to_sr1"/>
    <vehicle id="v21" type="car" depart="40.00" route="nr1_to_d2"/>
    <vehicle id="v22" type="car" depart="42.00" route="highway_direct"/>
    <vehicle id="v23" type="car" depart="44.00" route="nr2_to_d2"/>
    <vehicle id="v24" type="truck" depart="46.00" route="s2_to_d2"/>
    <vehicle id="v25" type="car" depart="48.00" route="highway_via_city"/>
    <vehicle id="v26" type="car" depart="50.00" route="s2_to_d1_up"/>
    <vehicle id="v27" type="car" depart="55.00" route="highway_direct"/>
    <vehicle id="v28" type="bus" depart="60.00" route="nr1_to_d1"/>
    <vehicle id="v29" type="car" depart="65.00" route="west_to_d2_mid"/>
    <vehicle id="v30" type="car" depart="70.00" route="s2_to_d1_mid"/>
    <vehicle id="v31" type="car" depart="75.00" route="highway_direct"/>
    <vehicle id="v32" type="truck" depart="80.00" route="highway_direct"/>
    <vehicle id="v33" type="car" depart="85.00" route="nr2_to_sr1"/>
    <vehicle id="v34" type="car" depart="90.00" route="nr3_to_d2"/>
    <vehicle id="v35" type="car" depart="95.00" route="s2_to_d2"/>
</routes>
