<?xml version="1.0" encoding="UTF-8"?>

<!-- generated on 2026-02-10 11:01:57 by Eclipse SUMO netconvert Version 1.18.0
<configuration xmlns:xsi="http://www.w3.org/2001/XMLSchema-instance" xsi:noNamespaceSchemaLocation="http://sumo.dlr.de/xsd/netconvertConfiguration.xsd">

    <input>
        <node-files value="/home/sujal/genVANET/genvanet.nod.xml"/>
        <edge-files value="/home/sujal/genVANET/genvanet.edg.xml"/>
    </input>

    <output>
        <output-file value="/home/sujal/genVANET/genvanet.net.xml"/>
    </output>

    <tls_building>
        <tls.guess value="true"/>
    </tls_building>

</configuration>
-->

<net version="1.16" junctionCornerDetail="5" limitTurnSpeed="5.50" xmlns:xsi="http://www.w3.org/2001/XMLSchema-instance" xsi:noNamespaceSchemaLocation="http://sumo.dlr.de/xsd/net_file.xsd">

    <location netOffset="200.00,350.00" convBoundary="0.00,0.00,800.00,500.00" origBoundary="-200.00,-350.00,600.00,150.00" projParameter="!"/>

    <edge id=":J1_0" function="internal">
        <lane id=":J1_0_0" index="0" speed="9.72" length="20.80" shape="198.40,360.40 198.40,339.60"/>
    </edge>
    <edge id=":J1_1" function="internal">
        <lane id=":J1_1_0" index="0" speed="8.67" length="16.85" shape="198.40,360.40 198.95,355.15 200.60,351.40 203.35,349.15 207.20,348.40"/>
    </edge>
    <edge id=":J1_2" function="internal">
        <lane id=":J1_2_0" index="0" speed="9.32" length="19.63" shape="207.20,354.80 203.35,353.85 200.60,351.00 198.95,346.25 198.40,339.60"/>
    </edge>
    <edge id=":J1_3" function="internal">
        <lane id=":J1_3_0" index="0" speed="3.65" length="2.34" shape="207.20,351.60 206.00,350.80 205.60,350.00"/>
    </edge>
    <edge id=":J1_9" function="internal">
        <lane id=":J1_9_0" index="0" speed="3.65" length="2.34" shape="205.60,350.00 206.00,349.20 207.20,348.40"/>
    </edge>
    <edge id=":J1_4" function="internal">
        <lane id=":J1_4_0" index="0" speed="6.51" length="9.03" shape="201.60,339.60 201.95,342.05 203.00,343.80 204.75,344.85 207.20,345.20"/>
    </edge>
    <edge id=":J1_5" function="internal">
        <lane id=":J1_5_0" index="0" speed="3.65" length="4.67" shape="201.60,339.60 200.80,340.80 200.00,341.20 199.20,340.80 198.40,339.60"/>
    </edge>
    <edge id=":J1_6" function="internal">
        <lane id=":J1_6_0" index="0" speed="6.51" length="9.03" shape="192.80,345.20 195.25,344.85 197.00,343.80 198.05,342.05 198.40,339.60"/>
    </edge>
    <edge id=":J1_7" function="internal">
        <lane id=":J1_7_0" index="0" speed="13.89" length="14.40" shape="192.80,345.20 207.20,345.20"/>
        <lane id=":J1_7_1" index="1" speed="13.89" length="14.40" shape="192.80,348.40 207.20,348.40"/>
    </edge>
    <edge id=":J2_0" function="internal">
        <lane id=":J2_0_0" index="0" speed="6.51" length="9.03" shape="398.40,360.40 398.05,357.95 397.00,356.20 395.25,355.15 392.80,354.80"/>
    </edge>
    <edge id=":J2_1" function="internal">
        <lane id=":J2_1_0" index="0" speed="9.72" length="20.80" shape="398.40,360.40 398.40,339.60"/>
    </edge>
    <edge id=":J2_2" function="internal">
        <lane id=":J2_2_0" index="0" speed="8.67" length="16.85" shape="398.40,360.40 398.95,355.15 400.60,351.40 403.35,349.15 407.20,348.40"/>
    </edge>
    <edge id=":J2_3" function="internal">
        <lane id=":J2_3_0" index="0" speed="13.89" length="14.40" shape="407.20,354.80 392.80,354.80"/>
        <lane id=":J2_3_1" index="1" speed="13.89" length="14.40" shape="407.20,351.60 392.80,351.60"/>
    </edge>
    <edge id=":J2_5" function="internal">
        <lane id=":J2_5_0" index="0" speed="8.67" length="3.71" shape="407.20,351.60 403.56,350.89"/>
    </edge>
    <edge id=":J2_6" function="internal">
        <lane id=":J2_6_0" index="0" speed="3.65" length="1.44" shape="407.20,351.60 406.00,350.80"/>
    </edge>
    <edge id=":J2_14" function="internal">
        <lane id=":J2_14_0" index="0" speed="8.67" length="13.14" shape="403.56,350.89 403.35,350.85 400.60,348.60 398.95,344.85 398.40,339.60"/>
    </edge>
    <edge id=":J2_15" function="internal">
        <lane id=":J2_15_0" index="0" speed="3.65" length="3.23" shape="406.00,350.80 405.60,350.00 406.00,349.20 407.20,348.40"/>
    </edge>
    <edge id=":J2_7" function="internal">
        <lane id=":J2_7_0" index="0" speed="6.51" length="9.03" shape="401.60,339.60 401.95,342.05 403.00,343.80 404.75,344.85 407.20,345.20"/>
    </edge>
    <edge id=":J2_8" function="internal">
        <lane id=":J2_8_0" index="0" speed="8.67" length="16.85" shape="401.60,339.60 401.05,344.85 399.40,348.60 396.65,350.85 392.80,351.60"/>
    </edge>
    <edge id=":J2_9" function="internal">
        <lane id=":J2_9_0" index="0" speed="3.65" length="1.44" shape="401.60,339.60 400.80,340.80"/>
    </edge>
    <edge id=":J2_16" function="internal">
        <lane id=":J2_16_0" index="0" speed="3.65" length="3.23" shape="400.80,340.80 400.00,341.20 399.20,340.80 398.40,339.60"/>
    </edge>
    <edge id=":J2_10" function="internal">
        <lane id=":J2_10_0" index="0" speed="6.51" length="9.03" shape="392.80,345.20 395.25,344.85 397.00,343.80 398.05,342.05 398.40,339.60"/>
    </edge>
    <edge id=":J2_11" function="internal">
        <lane id=":J2_11_0" index="0" speed="13.89" length="14.40" shape="392.80,345.20 407.20,345.20"/>
        <lane id=":J2_11_1" index="1" speed="13.89" length="14.40" shape="392.80,348.40 407.20,348.40"/>
    </edge>
    <edge id=":J2_13" function="internal">
        <lane id=":J2_13_0" index="0" speed="3.65" length="1.44" shape="392.80,348.40 394.00,349.20"/>
    </edge>
    <edge id=":J2_17" function="internal">
        <lane id=":J2_17_0" index="0" speed="3.65" length="3.23" shape="394.00,349.20 394.40,350.00 394.00,350.80 392.80,351.60"/>
    </edge>
    <edge id=":J3_0" function="internal">
        <lane id=":J3_0_0" index="0" speed="6.51" length="9.03" shape="598.40,360.40 598.05,357.95 597.00,356.20 595.25,355.15 592.80,354.80"/>
    </edge>
    <edge id=":J3_1" function="internal">
        <lane id=":J3_1_0" index="0" speed="9.72" length="20.80" shape="598.40,360.40 598.40,339.60"/>
    </edge>
    <edge id=":J3_2" function="internal">
        <lane id=":J3_2_0" index="0" speed="8.67" length="16.85" shape="598.40,360.40 598.95,355.15 600.60,351.40 603.35,349.15 607.20,348.40"/>
    </edge>
    <edge id=":J3_3" function="internal">
        <lane id=":J3_3_0" index="0" speed="6.51" length="9.03" shape="601.60,339.60 601.95,342.05 603.00,343.80 604.75,344.85 607.20,345.20"/>
    </edge>
    <edge id=":J3_4" function="internal">
        <lane id=":J3_4_0" index="0" speed="8.67" length="16.85" shape="601.60,339.60 601.05,344.85 599.40,348.60 596.65,350.85 592.80,351.60"/>
    </edge>
    <edge id=":J3_5" function="internal">
        <lane id=":J3_5_0" index="0" speed="3.65" length="1.44" shape="601.60,339.60 600.80,340.80"/>
    </edge>
    <edge id=":J3_10" function="internal">
        <lane id=":J3_10_0" index="0" speed="3.65" length="3.23" shape="600.80,340.80 600.00,341.20 599.20,340.80 598.40,339.60"/>
    </edge>
    <edge id=":J3_6" function="internal">
        <lane id=":J3_6_0" index="0" speed="6.51" length="9.03" shape="592.80,345.20 595.25,344.85 597.00,343.80 598.05,342.05 598.40,339.60"/>
    </edge>
    <edge id=":J3_7" function="internal">
        <lane id=":J3_7_0" index="0" speed="13.89" length="14.40" shape="592.80,345.20 607.20,345.20"/>
        <lane id=":J3_7_1" index="1" speed="13.89" length="14.40" shape="592.80,348.40 607.20,348.40"/>
    </edge>
    <edge id=":J3_9" function="internal">
        <lane id=":J3_9_0" index="0" speed="3.65" length="2.34" shape="592.80,348.40 594.00,349.20 594.40,350.00"/>
    </edge>
    <edge id=":J3_11" function="internal">
        <lane id=":J3_11_0" index="0" speed="3.65" length="2.34" shape="594.40,350.00 594.00,350.80 592.80,351.60"/>
    </edge>
    <edge id=":J4_0" function="internal">
        <lane id=":J4_0_0" index="0" speed="9.72" length="14.40" shape="198.40,257.20 198.40,242.80"/>
    </edge>
    <edge id=":J4_1" function="internal">
        <lane id=":J4_1_0" index="0" speed="8.00" length="4.07" shape="198.40,257.20 198.95,253.35 199.04,253.20"/>
    </edge>
    <edge id=":J4_2" function="internal">
        <lane id=":J4_2_0" index="0" speed="3.65" length="1.44" shape="198.40,257.20 199.20,256.00"/>
    </edge>
    <edge id=":J4_9" function="internal">
        <lane id=":J4_9_0" index="0" speed="8.00" length="10.13" shape="199.04,253.20 200.60,250.60 203.35,248.95 207.20,248.40"/>
    </edge>
    <edge id=":J4_10" function="internal">
        <lane id=":J4_10_0" index="0" speed="3.65" length="3.23" shape="199.20,256.00 200.00,255.60 200.80,256.00 201.60,257.20"/>
    </edge>
    <edge id=":J4_3" function="internal">
        <lane id=":J4_3_0" index="0" speed="6.51" length="9.03" shape="207.20,251.60 204.75,251.95 203.00,253.00 201.95,254.75 201.60,257.20"/>
    </edge>
    <edge id=":J4_4" function="internal">
        <lane id=":J4_4_0" index="0" speed="8.00" length="14.19" shape="207.20,251.60 203.35,251.05 200.60,249.40 198.95,246.65 198.40,242.80"/>
    </edge>
    <edge id=":J4_5" function="internal">
        <lane id=":J4_5_0" index="0" speed="3.65" length="1.44" shape="207.20,251.60 206.00,250.80"/>
    </edge>
    <edge id=":J4_11" function="internal">
        <lane id=":J4_11_0" index="0" speed="3.65" length="3.23" shape="206.00,250.80 205.60,250.00 206.00,249.20 207.20,248.40"/>
    </edge>
    <edge id=":J4_6" function="internal">
        <lane id=":J4_6_0" index="0" speed="6.51" length="9.03" shape="201.60,242.80 201.95,245.25 203.00,247.00 204.75,248.05 207.20,248.40"/>
    </edge>
    <edge id=":J4_7" function="internal">
        <lane id=":J4_7_0" index="0" speed="9.72" length="14.40" shape="201.60,242.80 201.60,257.20"/>
    </edge>
    <edge id=":J4_8" function="internal">
        <lane id=":J4_8_0" index="0" speed="3.65" length="1.44" shape="201.60,242.80 200.80,244.00"/>
    </edge>
    <edge id=":J4_12" function="internal">
        <lane id=":J4_12_0" index="0" speed="3.65" length="3.23" shape="200.80,244.00 200.00,244.40 199.20,244.00 198.40,242.80"/>
    </edge>
    <edge id=":J5_0" function="internal">
        <lane id=":J5_0_0" index="0" speed="6.51" length="9.03" shape="398.40,257.20 398.05,254.75 397.00,253.00 395.25,251.95 392.80,251.60"/>
    </edge>
    <edge id=":J5_1" function="internal">
        <lane id=":J5_1_0" index="0" speed="9.72" length="14.40" shape="398.40,257.20 398.40,242.80"/>
    </edge>
    <edge id=":J5_2" function="internal">
        <lane id=":J5_2_0" index="0" speed="8.00" length="4.07" shape="398.40,257.20 398.95,253.35 399.04,253.20"/>
    </edge>
    <edge id=":J5_3" function="internal">
        <lane id=":J5_3_0" index="0" speed="3.65" length="1.44" shape="398.40,257.20 399.20,256.00"/>
    </edge>
    <edge id=":J5_16" function="internal">
        <lane id=":J5_16_0" index="0" speed="8.00" length="10.13" shape="399.04,253.20 400.60,250.60 403.35,248.95 407.20,248.40"/>
    </edge>
    <edge id=":J5_17" function="internal">
        <lane id=":J5_17_0" index="0" speed="3.65" length="3.23" shape="399.20,256.00 400.00,255.60 400.80,256.00 401.60,257.20"/>
    </edge>
    <edge id=":J5_4" function="internal">
        <lane id=":J5_4_0" index="0" speed="6.51" length="9.03" shape="407.20,251.60 404.75,251.95 403.00,253.00 401.95,254.75 401.60,257.20"/>
    </edge>
    <edge id=":J5_5" function="internal">
        <lane id=":J5_5_0" index="0" speed="11.11" length="14.40" shape="407.20,251.60 392.80,251.60"/>
    </edge>
    <edge id=":J5_6" function="internal">
        <lane id=":J5_6_0" index="0" speed="8.00" length="4.07" shape="407.20,251.60 403.35,251.05 403.20,250.96"/>
    </edge>
    <edge id=":J5_7" function="internal">
        <lane id=":J5_7_0" index="0" speed="3.65" length="1.44" shape="407.20,251.60 406.00,250.80"/>
    </edge>
    <edge id=":J5_18" function="internal">
        <lane id=":J5_18_0" index="0" speed="8.00" length="10.13" shape="403.20,250.96 400.60,249.40 398.95,246.65 398.40,242.80"/>
    </edge>
    <edge id=":J5_19" function="internal">
        <lane id=":J5_19_0" index="0" speed="3.65" length="3.23" shape="406.00,250.80 405.60,250.00 406.00,249.20 407.20,248.40"/>
    </edge>
    <edge id=":J5_8" function="internal">
        <lane id=":J5_8_0" index="0" speed="6.51" length="9.03" shape="401.60,242.80 401.95,245.25 403.00,247.00 404.75,248.05 407.20,248.40"/>
    </edge>
    <edge id=":J5_9" function="internal">
        <lane id=":J5_9_0" index="0" speed="9.72" length="14.40" shape="401.60,242.80 401.60,257.20"/>
    </edge>
    <edge id=":J5_10" function="internal">
        <lane id=":J5_10_0" index="0" speed="8.00" length="4.07" shape="401.60,242.80 401.05,246.65 400.96,246.80"/>
    </edge>
    <edge id=":J5_11" function="internal">
        <lane id=":J5_11_0" index="0" speed="3.65" length="1.44" shape="401.60,242.80 400.80,244.00"/>
    </edge>
    <edge id=":J5_20" function="internal">
        <lane id=":J5_20_0" index="0" speed="8.00" length="10.13" shape="400.96,246.80 399.40,249.40 396.65,251.05 392.80,251.60"/>
    </edge>
    <edge id=":J5_21" function="internal">
        <lane id=":J5_21_0" index="0" speed="3.65" length="3.23" shape="400.80,244.00 400.00,244.40 399.20,244.00 398.40,242.80"/>
    </edge>
    <edge id=":J5_12" function="internal">
        <lane id=":J5_12_0" index="0" speed="6.51" length="9.03" shape="392.80,248.40 395.25,248.05 397.00,247.00 398.05,245.25 398.40,242.80"/>
    </edge>
    <edge id=":J5_13" function="internal">
        <lane id=":J5_13_0" index="0" speed="11.11" length="14.40" shape="392.80,248.40 407.20,248.40"/>
    </edge>
    <edge id=":J5_14" function="internal">
        <lane id=":J5_14_0" index="0" speed="8.00" length="4.07" shape="392.80,248.40 396.65,248.95 396.80,249.04"/>
    </edge>
    <edge id=":J5_15" function="internal">
        <lane id=":J5_15_0" index="0" speed="3.65" length="1.44" shape="392.80,248.40 394.00,249.20"/>
    </edge>
    <edge id=":J5_22" function="internal">
        <lane id=":J5_22_0" index="0" speed="8.00" length="10.13" shape="396.80,249.04 399.40,250.60 401.05,253.35 401.60,257.20"/>
    </edge>
    <edge id=":J5_23" function="internal">
        <lane id=":J5_23_0" index="0" speed="3.65" length="3.23" shape="394.00,249.20 394.40,250.00 394.00,250.80 392.80,251.60"/>
    </edge>
    <edge id=":J6_0" function="internal">
        <lane id=":J6_0_0" index="0" speed="6.51" length="9.03" shape="598.40,257.20 598.05,254.75 597.00,253.00 595.25,251.95 592.80,251.60"/>
    </edge>
    <edge id=":J6_1" function="internal">
        <lane id=":J6_1_0" index="0" speed="9.72" length="14.40" shape="598.40,257.20 598.40,242.80"/>
    </edge>
    <edge id=":J6_2" function="internal">
        <lane id=":J6_2_0" index="0" speed="3.65" length="1.44" shape="598.40,257.20 599.20,256.00"/>
    </edge>
    <edge id=":J6_9" function="internal">
        <lane id=":J6_9_0" index="0" speed="3.65" length="3.23" shape="599.20,256.00 600.00,255.60 600.80,256.00 601.60,257.20"/>
    </edge>
    <edge id=":J6_3" function="internal">
        <lane id=":J6_3_0" index="0" speed="9.72" length="14.40" shape="601.60,242.80 601.60,257.20"/>
    </edge>
    <edge id=":J6_4" function="internal">
        <lane id=":J6_4_0" index="0" speed="8.00" length="4.07" shape="601.60,242.80 601.05,246.65 600.96,246.80"/>
    </edge>
    <edge id=":J6_5" function="internal">
        <lane id=":J6_5_0" index="0" speed="3.65" length="1.44" shape="601.60,242.80 600.80,244.00"/>
    </edge>
    <edge id=":J6_10" function="internal">
        <lane id=":J6_10_0" index="0" speed="8.00" length="10.13" shape="600.96,246.80 599.40,249.40 596.65,251.05 592.80,251.60"/>
    </edge>
    <edge id=":J6_11" function="internal">
        <lane id=":J6_11_0" index="0" speed="3.65" length="3.23" shape="600.80,244.00 600.00,244.40 599.20,244.00 598.40,242.80"/>
    </edge>
    <edge id=":J6_6" function="internal">
        <lane id=":J6_6_0" index="0" speed="6.51" length="9.03" shape="592.80,248.40 595.25,248.05 597.00,247.00 598.05,245.25 598.40,242.80"/>
    </edge>
    <edge id=":J6_7" function="internal">
        <lane id=":J6_7_0" index="0" speed="8.00" length="14.19" shape="592.80,248.40 596.65,248.95 599.40,250.60 601.05,253.35 601.60,257.20"/>
    </edge>
    <edge id=":J6_8" function="internal">
        <lane id=":J6_8_0" index="0" speed="3.65" length="1.44" shape="592.80,248.40 594.00,249.20"/>
    </edge>
    <edge id=":J6_12" function="internal">
        <lane id=":J6_12_0" index="0" speed="3.65" length="3.23" shape="594.00,249.20 594.40,250.00 594.00,250.80 592.80,251.60"/>
    </edge>
    <edge id=":J7_0" function="internal">
        <lane id=":J7_0_0" index="0" speed="8.00" length="14.19" shape="198.40,157.20 198.95,153.35 200.60,150.60 203.35,148.95 207.20,148.40"/>
    </edge>
    <edge id=":J7_1" function="internal">
        <lane id=":J7_1_0" index="0" speed="3.65" length="1.44" shape="198.40,157.20 199.20,156.00"/>
    </edge>
    <edge id=":J7_6" function="internal">
        <lane id=":J7_6_0" index="0" speed="3.65" length="3.23" shape="199.20,156.00 200.00,155.60 200.80,156.00 201.60,157.20"/>
    </edge>
    <edge id=":J7_2" function="internal">
        <lane id=":J7_2_0" index="0" speed="6.51" length="9.03" shape="207.20,151.60 204.75,151.95 203.00,153.00 201.95,154.75 201.60,157.20"/>
    </edge>
    <edge id=":J7_3" function="internal">
        <lane id=":J7_3_0" index="0" speed="3.65" length="1.44" shape="207.20,151.60 206.00,150.80"/>
    </edge>
    <edge id=":J7_7" function="internal">
        <lane id=":J7_7_0" index="0" speed="3.65" length="3.23" shape="206.00,150.80 205.60,150.00 206.00,149.20 207.20,148.40"/>
    </edge>
    <edge id=":J7_4" function="internal">
        <lane id=":J7_4_0" index="0" speed="8.33" length="14.40" shape="192.80,148.40 207.20,148.40"/>
    </edge>
    <edge id=":J7_5" function="internal">
        <lane id=":J7_5_0" index="0" speed="8.00" length="10.30" shape="192.80,148.40 196.65,148.95 199.40,150.60 201.05,153.35"/>
    </edge>
    <edge id=":J7_8" function="internal">
        <lane id=":J7_8_0" index="0" speed="8.00" length="3.89" shape="201.05,153.35 201.60,157.20"/>
    </edge>
    <edge id=":J8_0" function="internal">
        <lane id=":J8_0_0" index="0" speed="6.51" length="9.03" shape="398.40,157.20 398.05,154.75 397.00,153.00 395.25,151.95 392.80,151.60"/>
    </edge>
    <edge id=":J8_1" function="internal">
        <lane id=":J8_1_0" index="0" speed="8.33" length="14.40" shape="398.40,157.20 398.40,142.80"/>
    </edge>
    <edge id=":J8_2" function="internal">
        <lane id=":J8_2_0" index="0" speed="8.00" length="14.19" shape="398.40,157.20 398.95,153.35 400.60,150.60 403.35,148.95 407.20,148.40"/>
    </edge>
    <edge id=":J8_3" function="internal">
        <lane id=":J8_3_0" index="0" speed="3.65" length="1.44" shape="398.40,157.20 399.20,156.00"/>
    </edge>
    <edge id=":J8_12" function="internal">
        <lane id=":J8_12_0" index="0" speed="3.65" length="3.23" shape="399.20,156.00 400.00,155.60 400.80,156.00 401.60,157.20"/>
    </edge>
    <edge id=":J8_4" function="internal">
        <lane id=":J8_4_0" index="0" speed="6.51" length="9.03" shape="407.20,151.60 404.75,151.95 403.00,153.00 401.95,154.75 401.60,157.20"/>
    </edge>
    <edge id=":J8_5" function="internal">
        <lane id=":J8_5_0" index="0" speed="8.33" length="14.40" shape="407.20,151.60 392.80,151.60"/>
    </edge>
    <edge id=":J8_6" function="internal">
        <lane id=":J8_6_0" index="0" speed="8.00" length="4.07" shape="407.20,151.60 403.35,151.05 403.20,150.96"/>
    </edge>
    <edge id=":J8_7" function="internal">
        <lane id=":J8_7_0" index="0" speed="3.65" length="1.44" shape="407.20,151.60 406.00,150.80"/>
    </edge>
    <edge id=":J8_13" function="internal">
        <lane id=":J8_13_0" index="0" speed="8.00" length="10.13" shape="403.20,150.96 400.60,149.40 398.95,146.65 398.40,142.80"/>
    </edge>
    <edge id=":J8_14" function="internal">
        <lane id=":J8_14_0" index="0" speed="3.65" length="3.23" shape="406.00,150.80 405.60,150.00 406.00,149.20 407.20,148.40"/>
    </edge>
    <edge id=":J8_8" function="internal">
        <lane id=":J8_8_0" index="0" speed="6.51" length="9.03" shape="392.80,148.40 395.25,148.05 397.00,147.00 398.05,145.25 398.40,142.80"/>
    </edge>
    <edge id=":J8_9" function="internal">
        <lane id=":J8_9_0" index="0" speed="8.33" length="14.40" shape="392.80,148.40 407.20,148.40"/>
    </edge>
    <edge id=":J8_10" function="internal">
        <lane id=":J8_10_0" index="0" speed="8.00" length="4.07" shape="392.80,148.40 396.65,148.95 396.80,149.04"/>
    </edge>
    <edge id=":J8_11" function="internal">
        <lane id=":J8_11_0" index="0" speed="3.65" length="1.44" shape="392.80,148.40 394.00,149.20"/>
    </edge>
    <edge id=":J8_15" function="internal">
        <lane id=":J8_15_0" index="0" speed="8.00" length="10.13" shape="396.80,149.04 399.40,150.60 401.05,153.35 401.60,157.20"/>
    </edge>
    <edge id=":J8_16" function="internal">
        <lane id=":J8_16_0" index="0" speed="3.65" length="3.23" shape="394.00,149.20 394.40,150.00 394.00,150.80 392.80,151.60"/>
    </edge>
    <edge id=":J9_0" function="internal">
        <lane id=":J9_0_0" index="0" speed="6.51" length="9.03" shape="598.40,157.20 598.05,154.75 597.00,153.00 595.25,151.95 592.80,151.60"/>
    </edge>
    <edge id=":J9_1" function="internal">
        <lane id=":J9_1_0" index="0" speed="8.33" length="14.40" shape="598.40,157.20 598.40,142.80"/>
    </edge>
    <edge id=":J9_2" function="internal">
        <lane id=":J9_2_0" index="0" speed="8.00" length="2.51" shape="598.40,157.20 598.76,154.71"/>
    </edge>
    <edge id=":J9_3" function="internal">
        <lane id=":J9_3_0" index="0" speed="3.65" length="1.30" shape="598.40,157.20 599.12,156.12"/>
    </edge>
    <edge id=":J9_8" function="internal">
        <lane id=":J9_8_0" index="0" speed="8.00" length="11.68" shape="598.76,154.71 598.95,153.35 600.60,150.60 603.35,148.95 607.20,148.40"/>
    </edge>
    <edge id=":J9_9" function="internal">
        <lane id=":J9_9_0" index="0" speed="3.65" length="3.37" shape="599.12,156.12 599.20,156.00 600.00,155.60 600.80,156.00 601.60,157.20"/>
    </edge>
    <edge id=":J9_4" function="internal">
        <lane id=":J9_4_0" index="0" speed="6.51" length="9.03" shape="592.80,148.40 595.25,148.05 597.00,147.00 598.05,145.25 598.40,142.80"/>
    </edge>
    <edge id=":J9_5" function="internal">
        <lane id=":J9_5_0" index="0" speed="8.33" length="14.40" shape="592.80,148.40 607.20,148.40"/>
    </edge>
    <edge id=":J9_6" function="internal">
        <lane id=":J9_6_0" index="0" speed="8.00" length="14.19" shape="592.80,148.40 596.65,148.95 599.40,150.60 601.05,153.35 601.60,157.20"/>
    </edge>
    <edge id=":J9_7" function="internal">
        <lane id=":J9_7_0" index="0" speed="3.65" length="1.44" shape="592.80,148.40 594.00,149.20"/>
    </edge>
    <edge id=":J9_10" function="internal">
        <lane id=":J9_10_0" index="0" speed="3.65" length="3.23" shape="594.00,149.20 594.40,150.00 594.00,150.80 592.80,151.60"/>
    </edge>

    <edge id="J1_J2" from="J1" to="J2" priority="-1">
        <lane id="J1_J2_0" index="0" speed="13.89" length="185.60" shape="207.20,345.20 392.80,345.20"/>
        <lane id="J1_J2_1" index="1" speed="13.89" length="185.60" shape="207.20,348.40 392.80,348.40"/>
    </edge>
    <edge id="J1_J4" from="J1" to="J4" priority="-1">
        <lane id="J1_J4_0" index="0" speed="11.11" length="82.40" shape="198.40,339.60 198.40,257.20"/>
    </edge>
    <edge id="J2_J1" from="J2" to="J1" priority="-1">
        <lane id="J2_J1_0" index="0" speed="13.89" length="185.60" shape="392.80,354.80 207.20,354.80"/>
        <lane id="J2_J1_1" index="1" speed="13.89" length="185.60" shape="392.80,351.60 207.20,351.60"/>
    </edge>
    <edge id="J2_J3" from="J2" to="J3" priority="-1">
        <lane id="J2_J3_0" index="0" speed="13.89" length="185.60" shape="407.20,345.20 592.80,345.20"/>
        <lane id="J2_J3_1" index="1" speed="13.89" length="185.60" shape="407.20,348.40 592.80,348.40"/>
    </edge>
    <edge id="J2_J5" from="J2" to="J5" priority="-1">
        <lane id="J2_J5_0" index="0" speed="11.11" length="82.40" shape="398.40,339.60 398.40,257.20"/>
    </edge>
    <edge id="J3_D1" from="J3" to="D1" priority="-1">
        <lane id="J3_D1_0" index="0" speed="13.89" length="192.80" shape="607.20,345.20 800.00,345.20"/>
        <lane id="J3_D1_1" index="1" speed="13.89" length="192.80" shape="607.20,348.40 800.00,348.40"/>
    </edge>
    <edge id="J3_J2" from="J3" to="J2" priority="-1">
        <lane id="J3_J2_0" index="0" speed="13.89" length="185.60" shape="592.80,354.80 407.20,354.80"/>
        <lane id="J3_J2_1" index="1" speed="13.89" length="185.60" shape="592.80,351.60 407.20,351.60"/>
    </edge>
    <edge id="J3_J6" from="J3" to="J6" priority="-1">
        <lane id="J3_J6_0" index="0" speed="11.11" length="82.40" shape="598.40,339.60 598.40,257.20"/>
    </edge>
    <edge id="J4_J1" from="J4" to="J1" priority="-1">
        <lane id="J4_J1_0" index="0" speed="11.11" length="82.40" shape="201.60,257.20 201.60,339.60"/>
    </edge>
    <edge id="J4_J5" from="J4" to="J5" priority="-1">
        <lane id="J4_J5_0" index="0" speed="11.11" length="185.60" shape="207.20,248.40 392.80,248.40"/>
    </edge>
    <edge id="J4_J7" from="J4" to="J7" priority="-1">
        <lane id="J4_J7_0" index="0" speed="8.33" length="85.60" shape="198.40,242.80 198.40,157.20"/>
    </edge>
    <edge id="J5_J2" from="J5" to="J2" priority="-1">
        <lane id="J5_J2_0" index="0" speed="11.11" length="82.40" shape="401.60,257.20 401.60,339.60"/>
    </edge>
    <edge id="J5_J4" from="J5" to="J4" priority="-1">
        <lane id="J5_J4_0" index="0" speed="11.11" length="185.60" shape="392.80,251.60 207.20,251.60"/>
    </edge>
    <edge id="J5_J6" from="J5" to="J6" priority="-1">
        <lane id="J5_J6_0" index="0" speed="11.11" length="185.60" shape="407.20,248.40 592.80,248.40"/>
    </edge>
    <edge id="J5_J8" from="J5" to="J8" priority="-1">
        <lane id="J5_J8_0" index="0" speed="8.33" length="85.60" shape="398.40,242.80 398.40,157.20"/>
    </edge>
    <edge id="J6_J3" from="J6" to="J3" priority="-1">
        <lane id="J6_J3_0" index="0" speed="11.11" length="82.40" shape="601.60,257.20 601.60,339.60"/>
    </edge>
    <edge id="J6_J5" from="J6" to="J5" priority="-1">
        <lane id="J6_J5_0" index="0" speed="11.11" length="185.60" shape="592.80,251.60 407.20,251.60"/>
    </edge>
    <edge id="J6_J9" from="J6" to="J9" priority="-1">
        <lane id="J6_J9_0" index="0" speed="8.33" length="85.60" shape="598.40,242.80 598.40,157.20"/>
    </edge>
    <edge id="J7_J4" from="J7" to="J4" priority="-1">
        <lane id="J7_J4_0" index="0" speed="8.33" length="85.60" shape="201.60,157.20 201.60,242.80"/>
    </edge>
    <edge id="J7_J8" from="J7" to="J8" priority="-1">
        <lane id="J7_J8_0" index="0" speed="8.33" length="185.60" shape="207.20,148.40 392.80,148.40"/>
    </edge>
    <edge id="J8_J5" from="J8" to="J5" priority="-1">
        <lane id="J8_J5_0" index="0" speed="8.33" length="85.60" shape="401.60,157.20 401.60,242.80"/>
    </edge>
    <edge id="J8_J7" from="J8" to="J7" priority="-1">
        <lane id="J8_J7_0" index="0" speed="8.33" length="185.60" shape="392.80,151.60 207.20,151.60"/>
    </edge>
    <edge id="J8_J9" from="J8" to="J9" priority="-1">
        <lane id="J8_J9_0" index="0" speed="8.33" length="185.60" shape="407.20,148.40 592.80,148.40"/>
    </edge>
    <edge id="J8_SR1" from="J8" to="SR1" priority="-1">
        <lane id="J8_SR1_0" index="0" speed="8.33" length="142.80" shape="398.40,142.80 398.40,0.00"/>
    </edge>
    <edge id="J9_D2" from="J9" to="D2" priority="-1">
        <lane id="J9_D2_0" index="0" speed="8.33" length="192.80" shape="607.20,148.40 800.00,148.40"/>
    </edge>
    <edge id="J9_J6" from="J9" to="J6" priority="-1">
        <lane id="J9_J6_0" index="0" speed="8.33" length="85.60" shape="601.60,157.20 601.60,242.80"/>
    </edge>
    <edge id="J9_J8" from="J9" to="J8" priority="-1">
        <lane id="J9_J8_0" index="0" speed="8.33" length="185.60" shape="592.80,151.60 407.20,151.60"/>
    </edge>
    <edge id="J9_SR2" from="J9" to="SR2" priority="-1">
        <lane id="J9_SR2_0" index="0" speed="8.33" length="142.80" shape="598.40,142.80 598.40,0.00"/>
    </edge>
    <edge id="NR1_J1" from="NR1" to="J1" priority="-1">
        <lane id="NR1_J1_0" index="0" speed="8.33" length="139.60" shape="198.40,500.00 198.40,360.40"/>
    </edge>
    <edge id="NR2_J2" from="NR2" to="J2" priority="-1">
        <lane id="NR2_J2_0" index="0" speed="8.33" length="139.60" shape="398.40,500.00 398.40,360.40"/>
    </edge>
    <edge id="NR3_J3" from="NR3" to="J3" priority="-1">
        <lane id="NR3_J3_0" index="0" speed="8.33" length="139.60" shape="598.40,500.00 598.40,360.40"/>
    </edge>
    <edge id="S1_J1" from="S1" to="J1" priority="-1">
        <lane id="S1_J1_0" index="0" speed="13.89" length="192.80" shape="0.00,345.20 192.80,345.20"/>
        <lane id="S1_J1_1" index="1" speed="13.89" length="192.80" shape="0.00,348.40 192.80,348.40"/>
    </edge>
    <edge id="S2_J7" from="S2" to="J7" priority="-1">
        <lane id="S2_J7_0" index="0" speed="8.33" length="192.80" shape="0.00,148.40 192.80,148.40"/>
    </edge>

    <tlLogic id="J1" type="static" programID="0" offset="0">
        <phase duration="27" state="rrrrrrGGG"/>
        <phase duration="3"  state="rrrrrryyy"/>
        <phase duration="27" state="rrGgGgrrr"/>
        <phase duration="3"  state="rryyyyrrr"/>
        <phase duration="27" state="GGrrrrrrr"/>
        <phase duration="3"  state="yyrrrrrrr"/>
    </tlLogic>
    <tlLogic id="J2" type="static" programID="0" offset="0">
        <phase duration="27" state="rrrGGggrrrGGGg"/>