<?xml version="1.0" encoding="UTF-8"?>

<routes xmlns:xsi="http://www.w3.org/2001/XMLSchema-instance" xsi:noNamespaceSchemaLocation="http://sumo.dlr.de/xsd/routes_file.xsd">

    <!-- Vehicle types -->
    <vType id="car"   accel="2.6" decel="4.5" sigma="0.5" length="5"  minGap="2.5" maxSpeed="13.89" color="yellow"/>
    <vType id="bus"   accel="1.2" decel="4.0" sigma="0.5" length="12" minGap="3.0" maxSpeed="11.11" color="blue"/>
    <vType id="truck" accel="1.0" decel="3.5" sigma="0.5" length="10" minGap="3.5" maxSpeed="8.33"  color="red"/>

    <!-- ====== ROUTES ====== -->

    <!-- Highway through-routes (S1 → D1) -->
    <route id="highway_direct"      edges="S1_J1 J1_J2 J2_J3 J3_D1"/>
    <route id="highway_via_city"    edges="S1_J1 J1_J4 J4_J5 J5_J6 J6_J3 J3_D1"/>
    <route id="highway_via_local"   edges="S1_J1 J1_J4 J4_J7 J7_J8 J8_J9 J9_J6 J6_J3 J3_D1"/>

    <!-- West to East-South (S1 → D2) -->
    <route id="west_to_d2_mid"     edges="S1_J1 J1_J2 J2_J5 J5_J8 J8_J9 J9_D2"/>
    <route id="west_to_d2_south"   edges="S1_J1 J1_J4 J4_J7 J7_J8 J8_J9 J9_D2"/>

    <!-- Southwest entry routes (S2 → D1) -->
    <route id="s2_to_d1_up"        edges="S2_J7 J7_J4 J4_J1 J1_J2 J2_J3 J3_D1"/>
    <route id="s2_to_d1_mid"       edges="S2_J7 J7_J8 J8_J5 J5_J2 J2_J3 J3_D1"/>

    <!-- Southwest entry routes (S2 → D2) -->
    <route id="s2_to_d2"           edges="S2_J7 J7_J8 J8_J9 J9_D2"/>

    <!-- North residential → East exits -->
    <route id="nr1_to_d1"          edges="NR1_J1 J1_J2 J2_J3 J3_D1"/>
    <route id="nr2_to_d1"          edges="NR2_J2 J2_J3 J3_D1"/>
    <route id="nr3_to_d1"          edges="NR3_J3 J3_D1"/>
    <route id="nr1_to_d2"          edges="NR1_J1 J1_J4 J4_J7 J7_J8 J8_J9 J9_D2"/>
    <route id="nr2_to_d2"          edges="NR2_J2 J2_J5 J5_J8 J8_J9 J9_D2"/>
    <route id="nr3_to_d2"          edges="NR3_J3 J3_J6 J6_J9 J9_D2"/>

    <!-- North residential → South residential -->
    <route id="nr1_to_sr1"         edges="NR1_J1 J1_J4 J4_J5 J5_J8 J8_SR1"/>
    <route id="nr2_to_sr1"         edges="NR2_J2 J2_J5 J5_J8 J8_SR1"/>
    <route id="nr3_to_sr2"         edges="NR3_J3 J3_J6 J6_J9 J9_SR2"/>

    <!-- West → South residential -->
    <route id="s1_to_sr1"          edges="S1_J1 J1_J2 J2_J5 J5_J8 J8_SR1"/>
    <route id="s1_to_sr2"          edges="S1_J1 J1_J2 J2_J3 J3_J6 J6_J9 J9_SR2"/>

    <!-- ====== VEHICLES (sorted by departure time) ====== -->

    <vehicle id="v0"  type="car"   route="highway_direct"    depart="0.00"/>
    <vehicle id="v1"  type="car"   route="nr1_to_d1"         depart="2.00"/>
    <vehicle id="v2"  type="car"   route="s2_to_d2"          depart="4.00"/>
    <vehicle id="v3"  type="bus"   route="highway_direct"    depart="5.00"/>
    <vehicle id="v4"  type="car"   route="nr2_to_d1"         depart="7.00"/>
    <vehicle id="v5"  type="car"   route="nr3_to_d2"         depart="9.00"/>
    <vehicle id="v6"  type="truck" route="highway_via_city"  depart="10.00"/>
    <vehicle id="v7"  type="car"   route="west_to_d2_mid"    depart="12.00"/>
    <vehicle id="v8"  type="car"   route="s2_to_d1_up"       depart="14.00"/>
    <vehicle id="v9"  type="car"   route="nr1_to_sr1"        depart="16.00"/>
    <vehicle id="v10" type="car"   route="highway_direct"    depart="18.00"/>
    <vehicle id="v11" type="bus"   route="s2_to_d2"          depart="20.00"/>
    <vehicle id="v12" type="car"   route="nr2_to_sr1"        depart="22.00"/>
    <vehicle id="v13" type="car"   route="s1_to_sr2"         depart="24.00"/>
    <vehicle id="v14" type="car"   route="nr3_to_d1"         depart="26.00"/>
    <vehicle id="v15" type="truck" route="west_to_d2_south"  depart="28.00"/>
    <vehicle id="v16" type="car"   route="highway_direct"    depart="30.00"/>
    <vehicle id="v17" type="car"   route="s2_to_d1_mid"      depart="32.00"/>
    <vehicle id="v18" type="car"   route="nr3_to_sr2"        depart="34.00"/>
    <vehicle id="v19" type="bus"   route="highway_via_local" depart="36.00"/>
    <vehicle id="v20" type="car"   route="s1_to_sr1"         depart="38.00"/>
    <vehicle id="v21" type="car"   route="nr1_to_d2"         depart="40.00"/>
    <vehicle id="v22" type="car"   route="highway_direct"    depart="42.00"/>
    <vehicle id="v23" type="car"   route="nr2_to_d2"         depart="44.00"/>
    <vehicle id="v24" type="truck" route="s2_to_d2"          depart="46.00"/>
    <vehicle id="v25" type="car"   route="highway_via_city"  depart="48.00"/>
    <vehicle id="v26" type="car"   route="s2_to_d1_up"       depart="50.00"/>
    <vehicle id="v27" type="car"   route="highway_direct"    depart="55.00"/>
    <vehicle id="v28" type="bus"   route="nr1_to_d1"         depart="60.00"/>
    <vehicle id="v29" type="car"   route="west_to_d2_mid"    depart="65.00"/>
    <vehicle id="v30" type="car"   route="s2_to_d1_mid"      depart="70.00"/>
    <vehicle id="v31" type="car"   route="highway_direct"    depart="75.00"/>
    <vehicle id="v32" type="truck" route="highway_direct"    depart="80.00"/>
    <vehicle id="v33" type="car"   route="nr2_to_sr1"        depart="85.00"/>
    <vehicle id="v34" type="car"   route="nr3_to_d2"         depart="90.00"/>
    <vehicle id="v35" type="car"   route="s2_to_d2"          depart="95.00"/>

</routes>
